ipss.test.plugin.core/testData/psse/v30/HEonly_with_loads_added_for_interconnects3.raw
0,   100.00          / PSS/E-30.3    THU, OCT 11 2007  10:55
2007 SERIES, NERC/MMWG BASE CASE LIBRARY
2008 SUMMER, FINAL
248403,'07SUL_TP    ',  69.0000,1,     0.000,     0.000, 207,1207,1.01830,  -8.3003, 207
248404,'07VIC161    ', 161.0000,1,     0.000,     0.000, 207,1207,1.01508, -14.2776, 207
248405,'07SPRVLY    ',  69.0000,1,     0.000,     0.000, 207,1207,1.05064, -19.2643, 207
248406,'07GCCOAL    ',  69.0000,1,     0.000,     0.000, 207,1207,1.03365,  -6.3979, 207
248407,'07MAPCO     ',  69.0000,1,     0.000,     0.000, 207,1207,1.03766,  -6.8810, 207
248408,'07VALEEN    ',  69.0000,1,     0.000,     0.000, 207,1207,1.04977, -20.1281, 207
248409,'07GCCLP1    ',  69.0000,1,     0.000,     0.000, 207,1207,1.02445,  -7.5127, 207
248410,'07GCCLP2    ',  69.0000,1,     0.000,     0.000, 207,1207,1.02066,  -7.6272, 207
248412,'07AQUAL3    ',  69.0000,1,     0.000,     0.000, 207,1207,1.01174, -13.2717, 207
248413,'07HZLTON    ',  69.0000,1,     0.000,     0.000, 207,1207,1.04528,  -7.8284, 207
248414,'07PVCOAL    ',  69.0000,1,     0.000,     0.000, 207,1207,0.99926, -18.4707, 207
248415,'07RHILTP    ',  69.0000,1,     0.000,     0.000, 207,1207,1.01150, -22.4394, 207
248426,'07GCCLTP    ',  69.0000,1,     0.000,     0.000, 207,1207,1.03530,  -6.3242, 207
248427,'07ABYDEL    ',  69.0000,1,     0.000,     0.000, 207,1207,1.04493, -20.0378, 207
248428,'07RATTAP    ', 138.0000,1,     0.000,     0.000, 207,1207,1.02468, -10.3973, 207
248429,'07KLLRVL    ',  69.0000,1,     0.000,     0.000, 207,1207,1.00496, -16.4935, 207
248430,'07KLRV_T    ',  69.0000,1,     0.000,     0.000, 207,1207,1.00510, -16.4872, 207
248431,'07BRISTW    ', 161.0000,1,     0.000,     0.000, 207,1207,1.02156, -18.0751, 207
248445,'07SUL_SW    ',  69.0000,1,     0.000,     0.000, 207,1207,1.01840,  -8.2813, 207
248446,'07VINSIP    ',  69.0000,1,     0.000,     0.000, 207,1207,1.00781, -13.5169, 207
248447,'07VINSTP    ',  69.0000,1,     0.000,     0.000, 207,1207,1.00851, -13.4785, 207
248464,'07SAND69    ',  69.0000,1,     0.000,     0.000, 207,1207,1.09583, -11.4362, 207
248465,'07SAND61    ', 161.0000,1,     0.000,     0.000, 207,1207,1.00520, -10.6252, 207
248466,'07SANDT1    ',  69.0000,1,     0.000,     0.000, 207,1207,1.07973, -12.2158, 207
248467,'07SANDT2    ',  69.0000,1,     0.000,     0.000, 207,1207,1.07633, -10.6648, 207
248469,'07DCTRS1    ', 161.0000,1,     0.000,     0.000, 207,1207,1.01684, -28.4940, 207
248470,'07DCTRSS    ', 138.0000,1,     0.000,     0.000, 207,1207,1.01479, -29.6547, 207
248472,'07HONDA1    ', 138.0000,1,     0.000,     0.000, 207,1207,1.01425, -29.7120, 207
248473,'07HONDA2    ', 138.0000,1,     0.000,     0.000, 207,1207,1.01425, -29.7120, 207
248474,'07HONDA3    ',  13.8000,1,     0.000,     0.000, 207,1207,1.01332, -29.8701, 207
248475,'07HONDA4    ',  13.8000,1,     0.000,     0.000, 207,1207,1.01332, -29.8701, 207
248514,'07FERDND    ',  69.0000,1,     0.000,     0.000, 207,1207,1.02460, -24.1974, 207
248515,'07RAMSEY    ',  69.0000,1,     0.000,     0.000, 207,1207,1.04866, -19.0459, 207
248516,'07CORYDN    ',  69.0000,1,     0.000,     0.000, 207,1207,1.03161, -20.0107, 207
248521,'07MNRO_C    ',  69.0000,1,     0.000,     0.000, 207,1207,1.03433, -12.1886, 207
248522,'07RATTS     ', 161.0000,1,     0.000,     0.000, 207,1207,1.02487, -10.0473, 207
248523,'07RAT_1     ',  69.0000,1,     0.000,     0.000, 207,1207,1.05594, -11.0122, 207
248524,'07GRHM_T    ',  69.0000,1,     0.000,     0.000, 207,1207,1.07781, -11.4843, 207
248535,'07ODON      ',  69.0000,1,     0.000,     0.000, 207,1207,1.07794, -11.8505, 207
248536,'07SCTLND    ',  69.0000,1,     0.000,     0.000, 207,1207,1.06061, -12.1211, 207
248537,'07BLMFDT    ',  69.0000,1,     0.000,     0.000, 207,1207,1.05357, -12.0716, 207
248538,'07LYNS_T    ',  69.0000,1,     0.000,     0.000, 207,1207,1.05102, -11.6522, 207
248539,'07LYONS     ',  69.0000,1,     0.000,     0.000, 207,1207,1.05024, -11.6955, 207
248545,'07SWTZ_C    ',  69.0000,1,     0.000,     0.000, 207,1207,1.05062, -11.4774, 207
248546,'07WRTHG     ',  69.0000,1,     0.000,     0.000, 207,1207,1.05290, -11.0652, 207
248547,'07WORTH8    ', 138.0000,1,     0.000,     0.000, 207,1207,1.02091,  -9.7646, 207
248548,'07CALVRT    ',  69.0000,1,     0.000,     0.000, 207,1207,1.04995, -11.2214, 207
248549,'07CLY_CY    ',  69.0000,1,     0.000,     0.000, 207,1207,1.00823, -22.0988, 207
248560,'07STRYVL    ',  69.0000,1,     0.000,     0.000, 207,1207,1.01575, -21.7267, 207
248561,'07VCKSBG    ',  69.0000,1,     0.000,     0.000, 207,1207,1.04783, -11.3287, 207
248562,'07ESLVIN    ',  69.0000,1,     0.000,     0.000, 207,1207,1.01731,  -8.3403, 207
248563,'07WSLVIN    ',  69.0000,1,     0.000,     0.000, 207,1207,1.03208,  -6.5350, 207
248569,'07SCT_CY    ',  69.0000,1,     0.000,     0.000, 207,1207,1.02918,  -6.7546, 207
248570,'07MDLTWT    ',  69.0000,1,     0.000,     0.000, 207,1207,0.98359, -23.7535, 207
248571,'07MIDLTN    ',  69.0000,1,     0.000,     0.000, 207,1207,0.98167, -23.8682, 207
248572,'07FRMBRG    ',  69.0000,1,     0.000,     0.000, 207,1207,0.98410, -23.7204, 207
248573,'07KELLER    ',  69.0000,1,     0.000,     0.000, 207,1207,0.99289, -23.1779, 207
248574,'07MRM_TP    ',  69.0000,1,     0.000,     0.000, 207,1207,1.03902,  -7.7076, 207
248576,'07KLLR_S    ',  69.0000,1,     0.000,     0.000, 207,1207,0.99059, -23.3103, 207
248585,'07MRM_D     ',  69.0000,1,     0.000,     0.000, 207,1207,1.03805,  -7.7426, 207
248586,'07CARLIL    ',  69.0000,1,     0.000,     0.000, 207,1207,1.04050,  -8.8319, 207
248587,'07FRELND    ',  69.0000,1,     0.000,     0.000, 207,1207,1.07431, -12.4782, 207
248588,'07BRUCVL    ',  69.0000,4,     0.000,     0.000, 207,1207,1.00000,   0.0000, 207
248593,'07MNR_TP    ',  69.0000,1,     0.000,     0.000, 207,1207,1.03442, -12.1835, 207
248594,'07FRICTN    ',  69.0000,1,     0.000,     0.000, 207,1207,1.01701, -13.0222, 207
248595,'07VINCEN    ',  69.0000,1,     0.000,     0.000, 207,1207,1.00856, -13.4753, 207
248596,'07ESEX_W    ',  69.0000,1,     0.000,     0.000, 207,1207,1.04266, -11.7462, 207
248597,'07DECK_T    ',  69.0000,1,     0.000,     0.000, 207,1207,1.04539, -11.6025, 207
248598,'07DECKER    ',  69.0000,1,     0.000,     0.000, 207,1207,1.04438, -11.6439, 207
248609,'07UNION     ',  69.0000,1,     0.000,     0.000, 207,1207,1.04722, -11.3870, 207
248610,'07FRAN_T    ',  69.0000,1,     0.000,     0.000, 207,1207,1.04486,  -7.8531, 207
248611,'07FRNCSC    ',  69.0000,1,     0.000,     0.000, 207,1207,1.04331,  -7.9382, 207
248612,'07PRNCTN    ',  69.0000,1,     0.000,     0.000, 207,1207,1.04621,  -7.7915, 207
248613,'07OWNVIL    ',  69.0000,1,     0.000,     0.000, 207,1207,1.02859,  -7.3471, 207
248617,'07POSYVL    ',  69.0000,1,     0.000,     0.000, 207,1207,1.01794,  -7.8842, 207
248618,'07GRFN_T    ',  69.0000,1,     0.000,     0.000, 207,1207,1.01596,  -7.9975, 207
248619,'07WINFLD    ',  69.0000,1,     0.000,     0.000, 207,1207,1.01396,  -8.1089, 207
248620,'07GRIFIN    ',  69.0000,1,     0.000,     0.000, 207,1207,1.01559,  -8.0151, 207
248621,'07RAT_2     ',  69.0000,1,     0.000,     0.000, 207,1207,1.05594, -11.0122, 207
248632,'07ALGIER    ',  69.0000,1,     0.000,     0.000, 207,1207,1.05483, -11.1066, 207
248633,'07WHIT_J    ',  69.0000,1,     0.000,     0.000, 207,1207,1.00395, -17.6814, 207
248634,'07IRELND    ',  69.0000,1,     0.000,     0.000, 207,1207,1.00474, -18.2141, 207
248635,'07HNTB_T    ',  69.0000,1,     0.000,     0.000, 207,1207,0.99523, -18.6458, 207
248636,'07S.ANTY    ',  69.0000,1,     0.000,     0.000, 207,1207,1.02015, -24.4021, 207
248641,'07NW_HAV    ',  69.0000,1,     0.000,     0.000, 207,1207,1.02131, -23.6819, 207
248642,'07MIDWAY    ',  69.0000,1,     0.000,     0.000, 207,1207,1.02191, -21.5047, 207
248643,'07TEL_CY    ',  69.0000,1,     0.000,     0.000, 207,1207,1.00385, -23.1350, 207
248644,'07BANDON    ',  69.0000,1,     0.000,     0.000, 207,1207,1.02292, -22.4380, 207
248645,'07PRYCTY    ',  69.0000,1,     0.000,     0.000, 207,1207,1.02085, -22.5171, 207
248656,'07CHRNEY    ',  69.0000,1,     0.000,     0.000, 207,1207,1.01765, -22.1690, 207
248657,'07ROSHIL    ',  69.0000,1,     0.000,     0.000, 207,1207,1.01104, -22.4588, 207
248658,'07VICTRY    ',  69.0000,1,     0.000,     0.000, 207,1207,1.00430, -16.7479, 207
248659,'07DUB_TP    ',  69.0000,1,     0.000,     0.000, 207,1207,0.99562, -16.9267, 207
248660,'07DUBOIS    ',  69.0000,1,     0.000,     0.000, 207,1207,0.99371, -17.0139, 207
248665,'07ECKY_T    ',  69.0000,1,     0.000,     0.000, 207,1207,1.07568, -18.5408, 207
248666,'07TAS_2     ',  69.0000,1,     0.000,     0.000, 207,1207,1.07659, -18.4907, 207
248667,'07TASWL1    ', 161.0000,1,     0.000,     0.000, 207,1207,1.02504, -16.7163, 207
248668,'07JASPER    ',  69.0000,1,     0.000,     0.000, 207,1207,1.00517, -16.4842, 207
248669,'07FRNK_T    ',  69.0000,1,     0.000,     0.000, 207,1207,1.04891, -19.8652, 207
248680,'07CHAILX    ',  69.0000,1,     0.000,     0.000, 207,1207,1.04264, -20.1709, 207
248681,'07FRN_LK    ',  69.0000,1,     0.000,     0.000, 207,1207,1.04710, -19.9849, 207
248682,'07MARENG    ',  69.0000,1,     0.000,     0.000, 207,1207,1.05796, -19.6462, 207
248683,'07MAHANJ    ',  69.0000,1,     0.000,     0.000, 207,1207,1.05563, -19.7975, 207
248684,'07MAHAN     ',  69.0000,1,     0.000,     0.000, 207,1207,1.04223, -20.5535, 207
248689,'07LEIPSI    ',  69.0000,1,     0.000,     0.000, 207,1207,1.03779, -20.8039, 207
248690,'07OWNVL9    ',  69.0000,1,     0.000,     0.000, 207,1207,1.03529,  -6.3167, 207
248691,'07BEECHW    ',  69.0000,1,     0.000,     0.000, 207,1207,1.05585, -19.1793, 207
248692,'07GRENVL    ',  69.0000,1,     0.000,     0.000, 207,1207,1.02945, -24.9040, 207
248693,'07NAPOL1    ', 161.0000,1,     0.000,     0.000, 207,1207,1.02367, -27.1243, 207
248704,'07G-TOWN    ',  69.0000,1,     0.000,     0.000, 207,1207,1.03507, -24.6094, 207
248705,'07NAPOL8    ', 138.0000,1,     0.000,     0.000, 207,1207,1.03063, -27.1673, 207
248706,'07NAP_69    ',  69.0000,1,     0.000,     0.000, 207,1207,1.06673, -29.2243, 207
248707,'07DABNYJ    ',  69.0000,1,     0.000,     0.000, 207,1207,1.05763, -29.7010, 207
248711,'07N.VERN    ',  69.0000,1,     0.000,     0.000, 207,1207,1.04095, -30.5223, 207
248712,'07VERSLJ    ',  69.0000,1,     0.000,     0.000, 207,1207,1.04218, -30.5866, 207
248713,'07PLSANT    ',  69.0000,1,     0.000,     0.000, 207,1207,1.04572, -26.8476, 207
248714,'07FVEPTS    ',  69.0000,1,     0.000,     0.000, 207,1207,1.04271, -27.0268, 207
248715,'07ELROD     ',  69.0000,1,     0.000,     0.000, 207,1207,1.03524, -30.9208, 207
248716,'07DILBOR    ',  69.0000,1,     0.000,     0.000, 207,1207,1.04466, -32.6974, 207
248727,'07E.ENTR    ',  69.0000,1,     0.000,     0.000, 207,1207,1.03715, -27.3992, 207
248728,'07MEX_BM    ',  69.0000,1,     0.000,     0.000, 207,1207,1.03203, -27.6108, 207
248729,'07RAMSY     ',  69.0000,1,     0.000,     0.000, 207,1207,1.04793, -19.1812, 207
248730,'07DABNEY    ',  69.0000,1,     0.000,     0.000, 207,1207,1.05729, -29.7191, 207
248731,'07SUNAMN    ',  69.0000,1,     0.000,     0.000, 207,1207,1.05885, -31.8193, 207
248732,'07HUBBEL    ',  69.0000,1,     0.000,     0.000, 207,1207,1.06172, -31.6019, 207
248733,'07YRKVIL    ',  69.0000,1,     0.000,     0.000, 207,1207,1.04104, -32.7857, 207
248734,'07NEW_PT    ',  69.0000,1,     0.000,     0.000, 207,1207,1.05804, -29.9192, 207
248735,'07KNG_SW    ',  69.0000,1,     0.000,     0.000, 207,1207,1.03648, -31.8138, 207
248746,'07SANTEE    ',  69.0000,1,     0.000,     0.000, 207,1207,1.03482, -31.9001, 207
248747,'07ORANGE    ',  69.0000,1,     0.000,     0.000, 207,1207,1.02276, -33.0099, 207
248748,'07SEXTON    ',  69.0000,1,     0.000,     0.000, 207,1207,1.00632, -33.7166, 207
248749,'07BOYD_J    ',  69.0000,1,     0.000,     0.000, 207,1207,1.00581, -33.3901, 207
248750,'07CARTHA    ',  69.0000,1,     0.000,     0.000, 207,1207,1.00507, -33.4333, 207
248751,'07PIONEER   ',  69.0000,1,     0.000,     0.000, 207,1207,1.00734, -32.8542, 207
248752,'07PEPRTN    ',  69.0000,1,     0.000,     0.000, 207,1207,1.03034, -32.1672, 207
248753,'07METMRA    ',  69.0000,1,     0.000,     0.000, 207,1207,1.02102, -32.6994, 207
248754,'07BLMGRV    ',  69.0000,1,     0.000,     0.000, 207,1207,1.02052, -32.7273, 207
248755,'07BLU_CK    ',  69.0000,1,     0.000,     0.000, 207,1207,1.04517, -32.7471, 207
248766,'07BGCDRJ    ',  69.0000,1,     0.000,     0.000, 207,1207,1.03099, -33.5257, 207
248767,'07BG_CDR    ',  69.0000,1,     0.000,     0.000, 207,1207,1.02930, -33.6118, 207
248768,'07ROSE_T    ',  69.0000,1,     0.000,     0.000, 207,1207,1.01282, -34.5760, 207
248769,'07STAT69    ',  69.0000,1,     0.000,     0.000, 207,1207,1.02162, -21.4094, 207
248770,'07TOWER     ',  69.0000,1,     0.000,     0.000, 207,1207,1.05064, -19.2643, 207
248771,'07CONVIL    ',  69.0000,1,     0.000,     0.000, 207,1207,1.01642, -32.9725, 207
248772,'07WATRLO    ',  69.0000,1,     0.000,     0.000, 207,1207,1.01460, -33.0816, 207
248773,'07MEROM5    ', 345.0000,2,     0.000,     0.000, 207,1207,1.04528,  -4.4361, 207
248774,'07MRM_PR    ',  69.0000,1,     0.000,     0.000, 207,1207,1.03483,  -6.2850, 207
248775,'07WLTN_C    ',  69.0000,1,     0.000,     0.000, 207,1207,1.01856, -12.9443, 207
248776,'07RATTS8    ', 138.0000,1,     0.000,     0.000, 207,1207,1.02469, -10.3959, 207
248777,'07ODON_T    ',  69.0000,1,     0.000,     0.000, 207,1207,1.07818, -11.8412, 207
248778,'07ECKRTY    ',  69.0000,1,     0.000,     0.000, 207,1207,1.07464, -18.5980, 207
248779,'07FAIRV8    ', 138.0000,1,     0.000,     0.000, 207,1207,1.00101, -25.5530, 207
248780,'07FAIRVW    ',  69.0000,1,     0.000,     0.000, 207,1207,1.04718, -26.7337, 207
248781,'07MDLTNT    ',  69.0000,1,     0.000,     0.000, 207,1207,0.98272, -23.8070, 207
248782,'07PNR_SW    ',  69.0000,1,     0.000,     0.000, 207,1207,1.00693, -33.0028, 207
248783,'07CONRVL    ',  69.0000,1,     0.000,     0.000, 207,1207,1.01641, -32.9733, 207
248784,'07WORTH     ', 161.0000,1,     0.000,     0.000, 207,1207,1.01813,  -9.9678, 207
248785,'07FRLD_T    ',  69.0000,1,     0.000,     0.000, 207,1207,1.07725, -12.3369, 207
248786,'07CHRN_T    ',  69.0000,1,     0.000,     0.000, 207,1207,1.01820, -22.1419, 207
248787,'07PALMYR    ',  69.0000,1,     0.000,     0.000, 207,1207,1.04406, -19.3798, 207
248788,'07BLMFLD    ',  69.0000,1,     0.000,     0.000, 207,1207,1.05338, -12.0820, 207
248789,'07CMBCKJ    ',  69.0000,1,     0.000,     0.000, 207,1207,1.06264, -11.2997, 207
248790,'07CUMBAC    ',  69.0000,1,     0.000,     0.000, 207,1207,1.06200, -11.3237, 207
248791,'07HUNTBG    ',  69.0000,1,     0.000,     0.000, 207,1207,0.99373, -18.7101, 207
248792,'07WORTHN    ', 345.0000,1,     0.000,     0.000, 207,1207,1.03179,  -9.0588, 207
248793,'07BLOMNG    ', 345.0000,1,     0.000,     0.000, 207,1207,1.02089, -14.3303, 207
248794,'07CRTLND    ', 161.0000,1,     0.000,     0.000, 207,1207,1.04877, -20.0972, 207
248795,'07CRTLTP    ', 161.0000,1,     0.000,     0.000, 207,1207,1.04888, -20.0861, 207
248804,'07GRAHAM    ',  69.0000,1,     0.000,     0.000, 207,1207,1.07735, -11.5100, 207
248805,'07RVETHL    ',  69.0000,1,     0.000,     0.000, 207,1207,1.00774, -33.8669, 207
248806,'07BUECLR    ',  69.0000,1,     0.000,     0.000, 207,1207,1.07202, -18.7181, 207
248807,'07DOGWOD    ',  69.0000,1,     0.000,     0.000, 207,1207,1.02264, -22.2916, 207
248808,'07MAUKPT    ',  69.0000,1,     0.000,     0.000, 207,1207,1.02097, -22.5659, 207
248809,'07QUARRD    ',  69.0000,1,     0.000,     0.000, 207,1207,1.02991, -20.9164, 207
248810,'07MCKPRT    ',  69.0000,1,     0.000,     0.000, 207,1207,1.01253, -23.1296, 207
248811,'07ELIZBH    ',  69.0000,1,     0.000,     0.000, 207,1207,1.01918, -23.6178, 207
248812,'07LANVIL    ',  69.0000,1,     0.000,     0.000, 207,1207,1.02528, -24.5617, 207
248813,'07GRG_TN    ',  69.0000,1,     0.000,     0.000, 207,1207,1.03448, -24.6514, 207
248814,'07BRDFRD    ',  69.0000,1,     0.000,     0.000, 207,1207,1.03763, -19.8361, 207
248815,'07CHAMBG    ',  69.0000,1,     0.000,     0.000, 207,1207,1.04547, -20.3718, 207
248816,'07BRWVLT    ',  69.0000,1,     0.000,     0.000, 207,1207,1.04909, -30.1310, 207
248826,'07BRWRVL    ',  69.0000,1,     0.000,     0.000, 207,1207,1.04855, -30.1567, 207
248827,'07ROSEBG    ',  69.0000,1,     0.000,     0.000, 207,1207,1.01174, -34.6296, 207
248828,'07DAVIS     ',  69.0000,1,     0.000,     0.000, 207,1207,1.01790, -34.2723, 207
248829,'07BEDFRD    ', 161.0000,1,     0.000,     0.000, 207,1207,1.07932, -14.2741, 207
248830,'07RAMSY5    ', 345.0000,1,     0.000,     0.000, 207,1207,1.01327, -15.4729, 207
248831,'07HUBBL8    ', 138.0000,1,     0.000,     0.000, 207,1207,1.00810, -27.9539, 207
248832,'07ANDRSN    ',  69.0000,1,     0.000,     0.000, 207,1207,1.02966, -32.4152, 207
248833,'07CRANE     ',  69.0000,1,     0.000,     0.000, 207,1207,1.06146, -12.1084, 207
248839,'07RVETHT    ',  69.0000,1,     0.000,     0.000, 207,1207,1.00837, -33.8215, 207
248840,'07IRELAN    ',  69.0000,1,     0.000,     0.000, 207,1207,1.00324, -18.2953, 207
248841,'07SOLAR     ',  69.0000,1,     0.000,     0.000, 207,1207,1.05565, -11.0275, 207
248842,'07STAUTN    ', 138.0000,1,     0.000,     0.000, 207,1207,1.02212, -18.0496, 207
248843,'07SUNCOL    ',  69.0000,1,     0.000,     0.000, 207,1207,1.04614,  -9.4037, 207
248844,'07GLENWD    ',  69.0000,1,     0.000,     0.000, 207,1207,1.02113, -33.2027, 207
248845,'07SKNX_T    ',  69.0000,1,     0.000,     0.000, 207,1207,1.02628, -12.5687, 207
248851,'07GLENDL    ',  69.0000,1,     0.000,     0.000, 207,1207,1.00200, -17.7551, 207
...
0 / END OF BUS DATA, BEGIN LOAD DATA
248403,'1 ',1, 207,1207,     36.39,     -4.85,     0.000,     0.000,     0.000,     0.000, 207
248406,'1 ',1, 207,1207,     3.989,     1.591,     0.000,     0.000,     0.000,     0.000, 207
248407,'1 ',1, 207,1207,     7.285,     6.062,     0.000,     0.000,     0.000,     0.000, 207
248408,'1 ',1, 207,1207,     2.997,     0.823,     0.000,     0.000,     0.000,     0.000, 207
248410,'1 ',1, 207,1207,     8.805,     5.506,     0.000,     0.000,     0.000,     0.000, 207
248412,'1 ',1, 207,1207,     3.104,     2.867,     0.000,     0.000,     0.000,     0.000, 207
248413,'1 ',1, 207,1207,     1.743,     1.346,     0.000,     0.000,     0.000,     0.000, 207
248427,'1 ',1, 207,1207,     0.587,     0.619,     0.000,     0.000,     0.000,     0.000, 207
248427,'2 ',1, 207,1207,     5.376,     2.305,     0.000,     0.000,     0.000,     0.000, 207
248428,'1 ',1, 207,1207,     44.37,     9.700,     0.000,     0.000,     0.000,     0.000, 207
248429,'1 ',1, 207,1207,     3.936,     1.574,     0.000,     0.000,     0.000,     0.000, 207
248431,'1 ',1, 207,1207,     2.904,     0.986,     0.000,     0.000,     0.000,     0.000, 207
248446,'1 ',1, 207,1207,     1.346,     0.825,     0.000,     0.000,     0.000,     0.000, 207
248446,'2 ',1, 207,1207,     1.691,     0.309,     0.000,     0.000,     0.000,     0.000, 207
248470,'1 ',1, 207,1207,     31.34,     27.16,     0.000,     0.000,     0.000,     0.000, 207
248474,'1 ',1, 207,1207,    14.180,     4.682,     0.000,     0.000,     0.000,     0.000, 207
248475,'1 ',1, 207,1207,    14.180,     4.682,     0.000,     0.000,     0.000,     0.000, 207
248514,'1 ',1, 207,1207,     4.388,     1.702,     0.000,     0.000,     0.000,     0.000, 207
248515,'1 ',1, 207,1207,     67.18,     -6.90,     0.000,     0.000,     0.000,     0.000, 207
248516,'1 ',1, 207,1207,     7.751,     2.962,     0.000,     0.000,     0.000,     0.000, 207
248516,'2 ',1, 207,1207,     7.121,     2.727,     0.000,     0.000,     0.000,     0.000, 207
248516,'3 ',1, 207,1207,     4.090,     1.632,     0.000,     0.000,     0.000,     0.000, 207
248521,'1 ',1, 207,1207,     2.352,     0.784,     0.000,     0.000,     0.000,     0.000, 207
248521,'2 ',1, 207,1207,     0.908,     0.377,     0.000,     0.000,     0.000,     0.000, 207
248535,'1 ',1, 207,1207,     4.253,     1.955,     0.000,     0.000,     0.000,     0.000, 207
248536,'1 ',1, 207,1207,     4.508,     1.303,     0.000,     0.000,     0.000,     0.000, 207
248539,'1 ',1, 207,1207,     1.512,     0.455,     0.000,     0.000,     0.000,     0.000, 207
248545,'1 ',1, 207,1207,     4.224,     1.756,     0.000,     0.000,     0.000,     0.000, 207
248547,'1 ',1, 207,1207,    147.63,     -17.4,     0.000,     0.000,     0.000,     0.000, 207
248548,'1 ',1, 207,1207,     3.552,     1.107,     0.000,     0.000,     0.000,     0.000, 207
248549,'1 ',1, 207,1207,     4.055,     1.564,     0.000,     0.000,     0.000,     0.000, 207
248560,'1 ',1, 207,1207,     2.148,     0.653,     0.000,     0.000,     0.000,     0.000, 207
248561,'1 ',1, 207,1207,     3.888,     1.296,     0.000,     0.000,     0.000,     0.000, 207
248562,'1 ',1, 207,1207,     3.471,     1.078,     0.000,     0.000,     0.000,     0.000, 207
248563,'1 ',1, 207,1207,     3.966,     1.058,     0.000,     0.000,     0.000,     0.000, 207
248569,'1 ',1, 207,1207,     2.512,     0.433,     0.000,     0.000,     0.000,     0.000, 207
248571,'1 ',1, 207,1207,     2.225,     0.656,     0.000,     0.000,     0.000,     0.000, 207
248572,'1 ',1, 207,1207,     4.622,     1.220,     0.000,     0.000,     0.000,     0.000, 207
248573,'1 ',1, 207,1207,     5.091,     1.640,     0.000,     0.000,     0.000,     0.000, 207
248576,'1 ',1, 207,1207,     2.567,     1.103,     0.000,     0.000,     0.000,     0.000, 207
248585,'1 ',1, 207,1207,     1.542,     0.839,     0.000,     0.000,     0.000,     0.000, 207
248586,'1 ',1, 207,1207,    24.507,     8.059,     0.000,     0.000,     0.000,     0.000, 207
248587,'1 ',1, 207,1207,    14.997,     4.928,     0.000,     0.000,     0.000,     0.000, 207
248588,'1 ',1, 207,1207,     3.384,     1.142,     0.000,     0.000,     0.000,     0.000, 207
248594,'1 ',1, 207,1207,     2.105,     0.495,     0.000,     0.000,     0.000,     0.000, 207
248595,'1 ',1, 207,1207,     5.558,     1.351,     0.000,     0.000,     0.000,     0.000, 207
248596,'1 ',1, 207,1207,     3.372,     1.329,     0.000,     0.000,     0.000,     0.000, 207
248598,'1 ',1, 207,1207,     1.265,     0.622,     0.000,     0.000,     0.000,     0.000, 207
248609,'1 ',1, 207,1207,     1.774,     0.591,     0.000,     0.000,     0.000,     0.000, 207
248611,'1 ',1, 207,1207,     2.301,     0.700,     0.000,     0.000,     0.000,     0.000, 207
248612,'1 ',1, 207,1207,     4.503,     1.256,     0.000,     0.000,     0.000,     0.000, 207
248613,'1 ',1, 207,1207,    11.610,     3.733,     0.000,     0.000,     0.000,     0.000, 207
248617,'1 ',1, 207,1207,     3.036,     1.037,     0.000,     0.000,     0.000,     0.000, 207
248619,'1 ',1, 207,1207,     2.747,     0.838,     0.000,     0.000,     0.000,     0.000, 207
248620,'1 ',1, 207,1207,     1.091,     0.434,     0.000,     0.000,     0.000,     0.000, 207
248632,'1 ',1, 207,1207,     2.472,     0.567,     0.000,     0.000,     0.000,     0.000, 207
248634,'1 ',1, 207,1207,     5.550,     1.779,     0.000,     0.000,     0.000,     0.000, 207
248636,'1 ',1, 207,1207,     5.738,     2.250,     0.000,     0.000,     0.000,     0.000, 207
248641,'1 ',1, 207,1207,     3.850,     1.384,     0.000,     0.000,     0.000,     0.000, 207
248642,'1 ',1, 207,1207,    -28.19,     17.38,     0.000,     0.000,     0.000,     0.000, 207
248643,'1 ',1, 207,1207,     8.089,     3.534,     0.000,     0.000,     0.000,     0.000, 207
248644,'1 ',1, 207,1207,     5.420,     1.991,     0.000,     0.000,     0.000,     0.000, 207
248645,'1 ',1, 207,1207,     3.671,     1.464,     0.000,     0.000,     0.000,     0.000, 207
248656,'1 ',1, 207,1207,     1.771,     0.641,     0.000,     0.000,     0.000,     0.000, 207
248657,'1 ',1, 207,1207,     5.021,     1.753,     0.000,     0.000,     0.000,     0.000, 207
248658,'1 ',1, 207,1207,     6.813,     2.113,     0.000,     0.000,     0.000,     0.000, 207
248660,'1 ',1, 207,1207,     6.948,     2.825,     0.000,     0.000,     0.000,     0.000, 207
248680,'1 ',1, 207,1207,     2.576,     0.727,     0.000,     0.000,     0.000,     0.000, 207
248681,'1 ',1, 207,1207,     3.717,     0.697,     0.000,     0.000,     0.000,     0.000, 207
248682,'1 ',1, 207,1207,     2.175,     0.851,     0.000,     0.000,     0.000,     0.000, 207
248684,'1 ',1, 207,1207,     3.650,     1.100,     0.000,     0.000,     0.000,     0.000, 207
248689,'1 ',1, 207,1207,     4.499,     1.268,     0.000,     0.000,     0.000,     0.000, 207
248691,'1 ',1, 207,1207,     5.687,     1.694,     0.000,     0.000,     0.000,     0.000, 207
248692,'1 ',1, 207,1207,     8.008,     2.662,     0.000,     0.000,     0.000,     0.000, 207
248704,'1 ',1, 207,1207,     73.44,     -2.55,     0.000,     0.000,     0.000,     0.000, 207
248705,'1 ',1, 207,1207,     2.520,     9.010,     0.000,     0.000,     0.000,     0.000, 207
248706,'1 ',1, 207,1207,     5.350,     0.690,     0.000,     0.000,     0.000,     0.000, 207
248711,'1 ',1, 207,1207,     5.765,     2.110,     0.000,     0.000,     0.000,     0.000, 207
248712,'1 ',1, 207,1207,     9.505,     3.215,     0.000,     0.000,     0.000,     0.000, 207
248713,'1 ',1, 207,1207,     3.589,     1.057,     0.000,     0.000,     0.000,     0.000, 207
248714,'1 ',1, 207,1207,     2.614,     0.732,     0.000,     0.000,     0.000,     0.000, 207
248715,'1 ',1, 207,1207,     5.630,     2.057,     0.000,     0.000,     0.000,     0.000, 207
248716,'1 ',1, 207,1207,     9.531,     1.902,     0.000,     0.000,     0.000,     0.000, 207
248727,'1 ',1, 207,1207,     7.742,     2.418,     0.000,     0.000,     0.000,     0.000, 207
248728,'1 ',1, 207,1207,     3.065,     1.480,     0.000,     0.000,     0.000,     0.000, 207
248729,'1 ',1, 207,1207,     9.568,     2.349,     0.000,     0.000,     0.000,     0.000, 207
248730,'1 ',1, 207,1207,     2.532,     0.707,     0.000,     0.000,     0.000,     0.000, 207
248731,'1 ',1, 207,1207,    13.585,     2.299,     0.000,     0.000,     0.000,     0.000, 207
248733,'1 ',1, 207,1207,     9.932,     1.251,     0.000,     0.000,     0.000,     0.000, 207
248733,'2 ',1, 207,1207,     0.275,     0.116,     0.000,     0.000,     0.000,     0.000, 207
248734,'1 ',1, 207,1207,     3.685,     1.357,     0.000,     0.000,     0.000,     0.000, 207
248735,'1 ',1, 207,1207,     0.963,     0.281,     0.000,     0.000,     0.000,     0.000, 207
248746,'1 ',1, 207,1207,     4.061,     1.275,     0.000,     0.000,     0.000,     0.000, 207
248747,'1 ',1, 207,1207,     3.315,     1.037,     0.000,     0.000,     0.000,     0.000, 207
248748,'1 ',1, 207,1207,     2.837,     0.357,     0.000,     0.000,     0.000,     0.000, 207
248750,'1 ',1, 207,1207,     2.419,     0.671,     0.000,     0.000,     0.000,     0.000, 207
248751,'1 ',1, 207,1207,    -6.819,     2.607,     0.000,     0.000,     0.000,     0.000, 207
248752,'1 ',1, 207,1207,     1.508,     0.457,     0.000,     0.000,     0.000,     0.000, 207
248754,'1 ',1, 207,1207,     3.328,     1.159,     0.000,     0.000,     0.000,     0.000, 207
248755,'1 ',1, 207,1207,     3.812,     1.334,     0.000,     0.000,     0.000,     0.000, 207
248767,'1 ',1, 207,1207,     3.881,     1.279,     0.000,     0.000,     0.000,     0.000, 207
248768,'1 ',1, 207,1207,     6.630,     1.280,     0.000,     0.000,     0.000,     0.000, 207
248769,'1 ',1, 207,1207,     22.07,     2.250,     0.000,     0.000,     0.000,     0.000, 207
248770,'1 ',1, 207,1207,     4.742,     0.836,     0.000,     0.000,     0.000,     0.000, 207
248771,'1 ',1, 207,1207,     2.082,     0.680,     0.000,     0.000,     0.000,     0.000, 207
248772,'1 ',1, 207,1207,     2.094,     0.598,     0.000,     0.000,     0.000,     0.000, 207
248773,'1 ',1, 207,1207,    186.18,    -36.22,     0.000,     0.000,     0.000,     0.000, 207
248778,'1 ',1, 207,1207,     4.351,     1.409,     0.000,     0.000,     0.000,     0.000, 207
248788,'1 ',1, 207,1207,     5.904,     1.681,     0.000,     0.000,     0.000,     0.000, 207
248790,'1 ',1, 207,1207,     3.182,     1.545,     0.000,     0.000,     0.000,     0.000, 207
248791,'1 ',1, 207,1207,     6.939,     3.030,     0.000,     0.000,     0.000,     0.000, 207
248793,'1 ',1, 207,1207,    608.04,     6.580,     0.000,     0.000,     0.000,     0.000, 207
248794,'1 ',1, 207,1207,     4.616,     1.778,     0.000,     0.000,     0.000,     0.000, 207
248804,'1 ',1, 207,1207,     2.934,     0.736,     0.000,     0.000,     0.000,     0.000, 207
248805,'1 ',1, 207,1207,     5.188,     0.806,     0.000,     0.000,     0.000,     0.000, 207
248806,'1 ',1, 207,1207,     5.040,     1.716,     0.000,     0.000,     0.000,     0.000, 207
248807,'1 ',1, 207,1207,     7.456,     1.869,     0.000,     0.000,     0.000,     0.000, 207
248810,'1 ',1, 207,1207,     6.079,     2.209,     0.000,     0.000,     0.000,     0.000, 207
248811,'1 ',1, 207,1207,     5.763,     1.622,     0.000,     0.000,     0.000,     0.000, 207
248812,'1 ',1, 207,1207,    10.289,     1.277,     0.000,     0.000,     0.000,     0.000, 207
248813,'1 ',1, 207,1207,     6.939,     1.808,     0.000,     0.000,     0.000,     0.000, 207
248814,'1 ',1, 207,1207,     8.226,     1.240,     0.000,     0.000,     0.000,     0.000, 207
248826,'1 ',1, 207,1207,     1.877,     0.683,     0.000,     0.000,     0.000,     0.000, 207
248827,'1 ',1, 207,1207,     3.586,     1.278,     0.000,     0.000,     0.000,     0.000, 207
248828,'1 ',1, 207,1207,     3.578,     1.179,     0.000,     0.000,     0.000,     0.000, 207
248830,'1 ',1, 207,1207,   -143.73,    -10.23,     0.000,     0.000,     0.000,     0.000, 207
248833,'1 ',1, 207,1207,     0.000,     -0.14,     0.000,     0.000,     0.000,     0.000, 207
248840,'1 ',1, 207,1207,     2.586,     0.004,     0.000,     0.000,     0.000,     0.000, 207
248841,'1 ',1, 207,1207,     0.063,     0.021,     0.000,     0.000,     0.000,     0.000, 207
248841,'2 ',1, 207,1207,     1.899,     1.141,     0.000,     0.000,     0.000,     0.000, 207
248843,'1 ',1, 207,1207,     6.673,     2.360,     0.000,     0.000,     0.000,     0.000, 207
248844,'1 ',1, 207,1207,     -9.51,     -5.66,     0.000,     0.000,     0.000,     0.000, 207
248851,'1 ',1, 207,1207,     2.319,     0.402,     0.000,     0.000,     0.000,     0.000, 207
248851,'2 ',1, 207,1207,     0.999,     0.247,     0.000,     0.000,     0.000,     0.000, 207
248853,'1 ',1, 207,1207,     11.37,     1.140,     0.000,     0.000,     0.000,     0.000, 207
248854,'1 ',1, 207,1207,     7.696,     3.081,     0.000,     0.000,     0.000,     0.000, 207
248855,'1 ',1, 207,1207,     3.322,     2.225,     0.000,     0.000,     0.000,     0.000, 207
248856,'1 ',1, 207,1207,     1.727,     0.455,     0.000,     0.000,     0.000,     0.000, 207
248857,'1 ',1, 207,1207,    -91.38,    -14.12,     0.000,     0.000,     0.000,     0.000, 207
248859,'1 ',1, 207,1207,     0.204,     0.097,     0.000,     0.000,     0.000,     0.000, 207
248860,'1 ',1, 207,1207,     1.017,     0.465,     0.000,     0.000,     0.000,     0.000, 207
248862,'1 ',1, 207,1207,     1.697,     0.626,     0.000,     0.000,     0.000,     0.000, 207
248864,'1 ',1, 207,1207,    10.611,     1.156,     0.000,     0.000,     0.000,     0.000, 207
248864,'2 ',1, 207,1207,     7.441,    21.226,     0.000,     0.000,     0.000,     0.000, 207
248864,'3 ',1, 207,1207,     0.337,     0.283,     0.000,     0.000,     0.000,     0.000, 207
248866,'1 ',1, 207,1207,     2.010,     1.131,     0.000,     0.000,     0.000,     0.000, 207
248877,'1 ',1, 207,1207,     7.239,     3.974,     0.000,     0.000,     0.000,     0.000, 207
248878,'1 ',1, 207,1207,    17.322,     6.858,     0.000,     0.000,     0.000,     0.000, 207
248879,'1 ',1, 207,1207,     1.639,     0.697,     0.000,     0.000,     0.000,     0.000, 207
248881,'1 ',1, 207,1207,     6.557,     3.680,     0.000,     0.000,     0.000,     0.000, 207
248882,'1 ',1, 207,1207,     8.668,     5.785,     0.000,     0.000,     0.000,     0.000, 207
248883,'1 ',1, 207,1207,     3.193,     0.806,     0.000,     0.000,     0.000,     0.000, 207
248885,'1 ',1, 207,1207,     34.91,     20.13,     0.000,     0.000,     0.000,     0.000, 207
248887,'1 ',1, 207,1207,     31.62,    -43.05,     0.000,     0.000,     0.000,     0.000, 207
248913,'1 ',1, 207,1207,     6.365,     2.243,     0.000,     0.000,     0.000,     0.000, 207
248913,'2 ',1, 207,1207,     4.843,     0.684,     0.000,     0.000,     0.000,     0.000, 207
248913,'3 ',1, 207,1207,     0.190,     0.253,     0.000,     0.000,     0.000,     0.000, 207
0 / END OF LOAD DATA, BEGIN GENERATOR DATA
248690,'1 ',    47.756,   -15.104,   -18.000,   -18.000,1.00000,     0,   100.000,   0.00000,   1.00000,   0.00000,   0.00000,1.00000,1,  100.0,    47.740,    47.740, 207,1.0000
248773,'1 ',   443.195,     1.000,   175.000,     1.000,1.03800,     0,   600.000,   0.00300,   0.18965,   0.00000,   0.08439,1.00000,1,  100.0,   507.000,   180.000, 207,1.0000
248773,'2 ',   443.195,     1.000,   175.000,     1.000,1.03800,     0,   600.000,   0.00300,   0.18965,   0.00000,   0.08439,1.00000,1,  100.0,   493.000,   180.000, 207,1.0000
248779,'1 ',    17.095,     5.343,     5.390,     5.390,1.00000,     0,   100.000,   0.00000,   1.00000,   0.00000,   0.00000,1.00000,1,  100.0,    17.110,    17.110, 207,1.0000
248831,'1 ',    63.757,    17.043,    16.880,    16.880,1.00000,     0,   100.000,   0.00000,   1.00000,   0.00000,   0.00000,1.00000,1,  100.0,    63.740,    63.740, 207,1.0000
248842,'1 ',    43.192,    11.077,     8.180,     8.180,1.00000,     0,   100.000,   0.00000,   1.00000,   0.00000,   0.00000,1.00000,1,  100.0,    43.170,    43.170, 207,1.0000
248889,'1 ',    47.000,     4.217,    20.000,   -20.000,1.00000,     0,    71.200,   0.00000,   0.16400,   0.00000,   0.00000,1.00000,1,  100.0,    47.000,     0.000, 207,1.0000
248889,'2 ',    47.000,     4.217,    20.000,   -20.000,1.00000,     0,    71.200,   0.00000,   0.16400,   0.00000,   0.00000,1.00000,1,  100.0,    47.000,     0.000, 207,1.0000
248890,'1 ',    47.000,     4.217,    20.000,   -20.000,1.00000,     0,    71.200,   0.00000,   0.16400,   0.00000,   0.00000,1.00000,1,  100.0,    47.000,     0.000, 207,1.0000
248890,'2 ',    47.000,     4.217,    20.000,   -20.000,1.00000,     0,    71.200,   0.00000,   0.16400,   0.00000,   0.00000,1.00000,1,  100.0,    47.000,     0.000, 207,1.0000
248893,'1 ',    47.000,    20.000,    20.000,   -20.000,1.00000,     0,    71.200,   0.00000,   0.16400,   0.00000,   0.00000,1.00000,1,  100.0,    47.000,     0.000, 207,1.0000
248894,'1 ',    47.000,    20.000,    20.000,   -20.000,1.00000,     0,    71.200,   0.00000,   0.16400,   0.00000,   0.00000,1.00000,1,  100.0,    47.000,     0.000, 207,1.0000
248894,'2 ',     0.000,    20.000,    20.000,   -20.000,1.00000,     0,    71.200,   0.00000,   0.16400,   0.00000,   0.00000,1.00000,0,  100.0,    47.000,     0.000, 207,1.0000
248895,'1 ',    47.000,    14.732,    20.000,   -20.000,1.00000,     0,    71.200,   0.00000,   0.16400,   0.00000,   0.00000,1.00000,1,  100.0,    47.000,     0.000, 207,1.0000
248895,'2 ',    47.000,    14.732,    20.000,   -20.000,1.00000,     0,    71.200,   0.00000,   0.16400,   0.00000,   0.00000,1.00000,1,  100.0,    47.000,     0.000, 207,1.0000
248903,'1 ',   126.000,    19.400,    43.000,     1.000,1.02500,     0,   130.000,   0.00300,   0.16397,   0.00000,   0.00000,1.00000,1,  100.0,   126.000,    30.000, 207,1.0000
248904,'1 ',   124.000,    19.399,    43.000,     1.000,1.02500,     0,   130.000,   0.00300,   0.16397,   0.00000,   0.00000,1.00000,1,  100.0,   124.000,    30.000, 207,1.0000
0 / END OF GENERATOR DATA, BEGIN BRANCH DATA
248403, 248445,'1 ',   0.00041,   0.00089,   0.00021,   81.00,   81.00,   81.00,  0.00000,  0.00000,  0.00000,  0.00000,1,   0.00, 207,1.0000
248404, 248522,'1 ',   0.00843,   0.05480,   0.02704,  279.00,  279.00,  279.00,  0.00000,  0.00000,  0.00000,  0.00000,1,   0.00, 207,1.0000
248404, 248667,'1 ',   0.00958,   0.06220,   0.03069,  279.00,  279.00,  279.00,  0.00000,  0.00000,  0.00000,  0.00000,1,   0.00, 207,1.0000
248405, 248729,'1 ',   0.03474,   0.06759,   0.00120,  108.00,  108.00,  108.00,  0.00000,  0.00000,  0.00000,  0.00000,1,   4.50, 207,1.0000
248405, 248770,'1 ',   0.00000,   0.00010,   0.00000,   60.00,   60.00,   60.00,  0.00000,  0.00000,  0.00000,  0.00000,1,   0.00, 207,1.0000
248406, 248426,'1 ',   0.02534,   0.04434,   0.00073,   47.00,   47.00,   47.00,  0.00000,  0.00000,  0.00000,  0.00000,1,   2.50, 207,1.0000
248407, 248426,'1 ',   0.02429,   0.04251,   0.00070,   47.00,   47.00,   47.00,  0.00000,  0.00000,  0.00000,  0.00000,1,   2.60, 207,1.0000
248407, 248612,'1 ',   0.06073,   0.10627,   0.00175,   47.00,   47.00,   47.00,  0.00000,  0.00000,  0.00000,  0.00000,1,   0.00, 207,1.0000
248408, 248683,'1 ',   0.03806,   0.06660,   0.00110,   25.00,   25.00,   25.00,  0.00000,  0.00000,  0.00000,  0.00000,1,   0.00, 207,1.0000
248408, 248815,'1 ',   0.03806,   0.06660,   0.00110,   25.00,   25.00,   25.00,  0.00000,  0.00000,  0.00000,  0.00000,1,   0.00, 207,1.0000
248409, 248410,'1 ',   0.02104,   0.03681,   0.00061,   47.00,   47.00,   47.00,  0.00000,  0.00000,  0.00000,  0.00000,1,   0.00, 207,1.0000
248409,-248613,'1 ',   0.01496,   0.02618,   0.00070,   47.00,   47.00,   47.00,  0.00000,  0.00000,  0.00000,  0.00115,1,   1.60, 207,1.0000
248409, 248617,'1 ',   0.06592,   0.11535,   0.00191,   47.00,   47.00,   47.00,  0.00000,  0.00000,  0.00000,  0.00115,1,   7.00, 207,1.0000
248412, 248594,'1 ',   0.02371,   0.04876,   0.00090,   60.00,   60.00,   60.00,  0.00000,  0.00000,  0.00000,  0.00000,1,   0.00, 207,1.0000
248412, 248595,'1 ',   0.02371,   0.04876,   0.00090,   60.00,   60.00,   60.00,  0.00000,  0.00000,  0.00000,  0.00000,1,   0.00, 207,1.0000
248413, 248610,'1 ',   0.01347,   0.02356,   0.00039,   47.00,   47.00,   47.00,  0.00000,  0.00000,  0.00000,  0.00000,1,   0.00, 207,1.0000
248413, 248612,'1 ',   0.01347,   0.02356,   0.00039,   47.00,   47.00,   47.00,  0.00000,  0.00000,  0.00000,  0.00000,1,   0.00, 207,1.0000
248414, 248635,'1 ',   0.03304,   0.05783,   0.00096,   47.00,   47.00,   47.00,  0.00000,  0.00000,  0.00000,  0.00000,1,   0.00, 207,1.0000
248414, 248840,'1 ',   0.03304,   0.05783,   0.00096,   47.00,   47.00,   47.00,  0.00000,  0.00000,  0.00000,  0.00000,1,   0.00, 207,1.0000
248415, 248657,'1 ',   0.00598,   0.00900,   0.00013,   25.00,   25.00,   25.00,  0.00000,  0.00000,  0.00000,  0.00000,1,   0.00, 207,1.0000
248415, 248786,'1 ',   0.09035,   0.13601,   0.00194,   25.00,   25.00,   25.00,  0.00000,  0.00000,  0.00000,  0.00000,1,   0.00, 207,1.0000
248426, 248690,'1 ',   0.00029,   0.00051,   0.00018,   47.00,   47.00,   47.00,  0.00000,  0.00052,  0.00000,  0.00000,1,   0.00, 207,1.0000
248427, 248669,'1 ',   0.02860,   0.05005,   0.00083,   25.00,   25.00,   25.00,  0.00000,  0.00000,  0.00000,  0.00000,1,   0.00, 207,1.0000
248427, 248680,'1 ',   0.06518,   0.11406,   0.00189,   25.00,   25.00,   25.00,  0.00000,  0.00000,  0.00000,  0.00000,1,   0.00, 207,1.0000
248428, 248776,'1 ',   0.00001,   0.00006,   0.00040,  239.00,  239.00,  239.00,  0.00000,  0.00000,  0.00000,  0.00000,1,   0.00, 207,1.0000
248429, 248430,'1 ',   0.00210,   0.00368,   0.00006,   47.00,   47.00,   47.00,  0.00000,  0.00000,  0.00000,  0.00000,1,   0.00, 207,1.0000
248430, 248659,'1 ',   0.08081,   0.14143,   0.00239,   47.00,   47.00,   47.00,  0.00000,  0.00000,  0.00000,  0.00000,1,   0.00, 207,1.0000
248430, 248885,'1 ',   0.00036,   0.00062,   0.00001,   60.00,   60.00,   60.00,  0.00000,  0.00000,  0.00000,  0.00000,1,   0.00, 207,1.0000
248431, 248667,'1 ',   0.00555,   0.03599,   0.03060,  279.00,  279.00,  279.00,  0.00000,  0.00000,  0.00000,  0.00000,1,   0.00, 207,1.0000
248431, 248865,'1 ',   0.00512,   0.03323,   0.02822,  279.00,  279.00,  279.00,  0.00000,  0.00000,  0.00000,  0.00000,1,   1.00, 207,1.0000
248445, 248562,'1 ',   0.02099,   0.03700,   0.00090,   25.00,   25.00,   25.00,  0.00000,  0.00000,  0.00000,  0.00000,1,   0.00, 207,1.0000
248445, 248774,'1 ',   0.04988,   0.08659,   0.00983,   69.00,   69.00,   69.00,  0.00000,  0.00000,  0.00000,  0.00000,1,   0.00, 207,1.0000
248446, 248447,'1 ',   0.01322,   0.02722,   0.00050,   60.00,   60.00,   60.00,  0.00000,  0.00000,  0.00000,  0.00000,1,   2.00, 207,1.0000
248447, 248595,'1 ',   0.00110,   0.00227,   0.00004,   60.00,   60.00,   60.00,  0.00000,  0.00000,  0.00000,  0.00000,1,   0.20, 207,1.0000
248447, 248596,'1 ',   0.00110,   0.00227,   0.00004,   60.00,   60.00,   60.00,  0.00000,  0.00000,  0.00000,  0.00000,0,   0.20, 207,1.0000
248464,-248466,'1 ',   0.07434,   0.13008,   0.00216,   46.00,   46.00,   46.00,  0.00000,  0.00000,  0.00000,  0.00000,1,   0.00, 207,1.0000
248464,-248467,'1 ',   0.07434,   0.13008,   0.00216,   46.00,   46.00,   46.00,  0.00000,  0.00000,  0.00000,  0.00000,1,   0.00, 207,1.0000
248464,-248524,'1 ',   0.07434,   0.13008,   0.00216,   47.00,   47.00,   47.00,  0.00000,  0.00000,  0.00000,  0.00000,1,   0.00, 207,1.0000
248464, 248777,'1 ',   0.07434,   0.13008,   0.00216,   47.00,   47.00,   47.00,  0.00000,  0.00000,  0.00000,  0.00000,1,   0.00, 207,1.0000
248465,-248784,'1 ',   0.00884,   0.05735,   0.02832,  335.00,  335.00,  335.00,  0.00000,  0.00000,  0.00000,  0.00000,1,   0.00, 207,1.0000
248465, 248878,'1 ',   0.00436,   0.02825,   0.01395,  335.00,  335.00,  335.00,  0.00000,  0.00000,  0.00000,  0.00000,1,   0.00, 207,1.0000
248466,-248467,'1 ',   0.00000,   0.00010,   0.00000,  999.00,  999.00,  999.00,  0.00000,  0.00000,  0.00000,  0.00000,0,   0.00, 207,1.0000
248466,-248785,'1 ',   0.01143,   0.02000,   0.00033,   47.00,   47.00,   47.00,  0.00000,  0.00000,  0.00000,  0.00115,1,   4.30, 207,1.0000
248467, 248843,'1 ',   0.11432,   0.20005,   0.00332,   47.00,   47.00,   47.00,  0.00000,  0.00000,  0.00000,  0.00115,1,   4.30, 207,1.0000
248469, 248693,'1 ',   0.00728,   0.04233,   0.02108,  257.00,  257.00,  257.00,  0.00000,  0.00000,  0.00000,  0.00000,1,   0.00, 207,1.0000
248470, 248472,'1 ',   0.00137,   0.00771,   0.00220,  220.00,  220.00,  220.00,  0.00000,  0.00000,  0.00000,  0.00000,1,   5.00, 207,1.0000
248470, 248473,'1 ',   0.00137,   0.00771,   0.00220,  220.00,  220.00,  220.00,  0.00000,  0.00000,  0.00000,  0.00000,1,   5.00, 207,1.0000
248514, 248636,'1 ',   0.04748,   0.08311,   0.00138,   47.00,   47.00,   47.00,  0.00000,  0.00000,  0.00000,  0.00000,1,   0.00, 207,1.0000
248514, 248641,'1 ',   0.03169,   0.05546,   0.00092,   54.00,   54.00,   54.00,  0.00000,  0.00000,  0.00000,  0.00000,1,   0.00, 207,1.0000
248515, 248516,'1 ',   0.04845,   0.11448,   0.00213,   69.00,   69.00,   69.00,  0.00000,  0.00000,  0.00000,  0.00000,1,   6.20, 207,1.0000
248515, 248729,'1 ',   0.01283,   0.02402,   0.00041,  108.00,  108.00,  108.00,  0.00000,  0.00000,  0.00000,  0.00000,1,   1.50, 207,1.0000
248515, 248787,'1 ',   0.04748,   0.08311,   0.00138,   47.00,   47.00,   47.00,  0.00000,  0.00000,  0.00000,  0.00000,1,   0.00, 207,1.0000
248515, 248809,'1 ',   0.04757,   0.09161,   0.00161,  108.00,  108.00,  108.00,  0.00000,  0.00000,  0.00000,  0.00000,1,   0.00, 207,1.0000
248516, 248809,'1 ',   0.02336,   0.05932,   0.00113,   69.00,   69.00,   69.00,  0.00000,  0.00000,  0.00000,  0.00000,0,   0.50, 207,1.0000
248521, 248593,'1 ',   0.00169,   0.00348,   0.00006,   31.00,   31.00,   31.00,  0.00000,  0.00000,  0.00000,  0.00000,1,   0.00, 207,1.0000
248522, 248878,'1 ',   0.00660,   0.04280,   0.02110,  335.00,  335.00,  335.00,  0.00000,  0.00000,  0.00000,  0.00000,1,   0.00, 207,1.0000
248522, 248901,'1 ',   0.00000,   0.00010,   0.00000,  999.00,  999.00,  999.00,  0.00000,  0.00000,  0.00000,  0.00000,1,   0.00, 207,1.0000
248523, 248597,'1 ',   0.11606,   0.23874,   0.00437,   60.00,   60.00,   60.00,  0.00000,  0.00000,  0.00000,  0.00000,1,   0.00, 207,1.0000
248523, 248609,'1 ',   0.05483,   0.11280,   0.00207,   60.00,   60.00,   60.00,  0.00000,  0.00000,  0.00000,  0.00000,1,   7.50, 207,1.0000
248523, 248621,'1 ',   0.00000,   0.00010,   0.00000,  999.00,  999.00,  999.00,  0.00000,  0.00000,  0.00000,  0.00000,1,   0.00, 207,1.0000
248523, 248632,'1 ',   0.03165,   0.08038,   0.00153,   69.00,   69.00,   69.00,  0.00000,  0.00000,  0.00000,  0.00000,1,   5.40, 207,1.0000
248523, 248789,'1 ',   0.05610,   0.09817,   0.00163,   59.00,   59.00,   59.00,  0.00000,  0.00000,  0.00000,  0.00000,1,   0.00, 207,1.0000
248523, 248841,'1 ',   0.00058,   0.00148,   0.00003,   69.00,   69.00,   69.00,  0.00000,  0.00000,  0.00000,  0.00000,1,   0.10, 207,1.0000
248524, 248804,'1 ',   0.01178,   0.02062,   0.00034,   25.00,   25.00,   25.00,  0.00000,  0.00000,  0.00000,  0.00000,1,   0.00, 207,1.0000
248524, 248866,'1 ',   0.04020,   0.07000,   0.00115,   47.00,   47.00,   47.00,  0.00000,  0.00000,  0.00000,  0.00000,1,   0.00, 207,1.0000
248535, 248777,'1 ',   0.00346,   0.00605,   0.00010,   25.00,   25.00,   25.00,  0.00000,  0.00000,  0.00000,  0.00000,1,   0.00, 207,1.0000
248536, 248537,'1 ',   0.06199,   0.10848,   0.00180,   47.00,   47.00,   47.00,  0.00000,  0.00000,  0.00000,  0.00000,1,   0.00, 207,1.0000
248536, 248833,'1 ',   0.00486,   0.00851,   0.00014,   47.00,   47.00,   47.00,  0.00000,  0.00000,  0.00000,  0.00000,1,   0.00, 207,1.0000
248537, 248538,'1 ',   0.07761,   0.13580,   0.00225,   47.00,   47.00,   47.00,  0.00000,  0.00000,  0.00000,  0.00000,1,   0.00, 207,1.0000
248537, 248788,'1 ',   0.00234,   0.00409,   0.00007,   47.00,   47.00,   47.00,  0.00000,  0.00000,  0.00000,  0.00000,1,   0.00, 207,1.0000
248538, 248539,'1 ',   0.03703,   0.06479,   0.00107,   25.00,   25.00,   25.00,  0.00000,  0.00000,  0.00000,  0.00000,1,   0.00, 207,1.0000
248538,-248545,'1 ',   0.02609,   0.04565,   0.00076,   54.00,   54.00,   54.00,  0.00000,  0.00000,  0.00000,  0.00000,1,   0.00, 207,1.0000
248545, 248546,'1 ',   0.04264,   0.07461,   0.00124,   54.00,   54.00,   54.00,  0.00000,  0.00000,  0.00000,  0.00000,1,   0.00, 207,1.0000
248546, 248548,'1 ',   0.05800,   0.10140,   0.00170,   25.00,   25.00,   25.00,  0.00000,  0.00000,  0.00000,  0.00000,1,   0.00, 207,1.0000
248546, 248561,'1 ',   0.08970,   0.15710,   0.00260,   25.00,   25.00,   25.00,  0.00000,  0.00000,  0.00000,  0.00000,1,   0.00, 207,1.0000
248548, 248549,'1 ',   0.11686,   0.20451,   0.00339,   25.00,   25.00,   25.00,  0.00000,  0.00000,  0.00000,  0.00000,0,   0.00, 207,1.0000
248549, 248560,'1 ',   0.11659,   0.20403,   0.00338,   25.00,   25.00,   25.00,  0.00000,  0.00000,  0.00000,  0.00000,1,   0.00, 207,1.0000
248560, 248769,'1 ',   0.06328,   0.11076,   0.00184,   25.00,   25.00,   25.00,  0.00000,  0.00000,  0.00000,  0.00000,1,   0.00, 207,1.0000
248561, 248562,'1 ',   0.09687,   0.16951,   0.00281,   25.00,   25.00,   25.00,  0.00000,  0.00000,  0.00000,  0.00000,0,   0.00, 207,1.0000
248563, 248569,'1 ',   0.09892,   0.17311,   0.00287,   25.00,   25.00,   25.00,  0.00000,  0.00000,  0.00000,  0.00000,1,   0.00, 207,1.0000
248563, 248774,'1 ',   0.03036,   0.07712,   0.00147,   35.00,   35.00,   35.00,  0.00000,  0.00000,  0.00000,  0.00000,1,   0.00, 207,1.0000
248569, 248570,'1 ',   0.03179,   0.05463,   0.00092,   25.00,   25.00,   25.00,  0.00000,  0.00000,  0.00000,  0.00000,0,   0.00, 207,1.0000
248570, 248572,'1 ',   0.01640,   0.02860,   0.00047,   25.00,   25.00,   25.00,  0.00000,  0.00000,  0.00000,  0.00000,1,   0.00, 207,1.0000
248570, 248781,'1 ',   0.02683,   0.04696,   0.00078,   25.00,   25.00,   25.00,  0.00000,  0.00000,  0.00000,  0.00000,1,   0.00, 207,1.0000
248571, 248781,'1 ',   0.03142,   0.05498,   0.00091,   25.00,   25.00,   25.00,  0.00000,  0.00000,  0.00000,  0.00000,1,   0.00, 207,1.0000
248572, 248576,'1 ',   0.06676,   0.11681,   0.00047,   25.00,   25.00,   25.00,  0.00000,  0.00120,  0.00000,  0.00000,1,   8.50, 207,1.0000
248573,-248576,'1 ',   0.01627,   0.02848,   0.00194,   25.00,   25.00,   25.00,  0.00000,  0.00120,  0.00000,  0.00000,1,   2.10, 207,1.0000
248573, 248769,'1 ',   0.12745,   0.24846,   0.00432,   35.00,   35.00,   35.00,  0.00000,  0.00000,  0.00000,  0.00000,1,   0.00, 207,1.0000
248574, 248585,'1 ',   0.03449,   0.06037,   0.00100,   69.00,   69.00,   69.00,  0.00000,  0.00000,  0.00000,  0.00000,1,   0.00, 207,1.0000
248574, 248586,'1 ',   0.02570,   0.04499,   0.00075,   47.00,   47.00,   47.00,  0.00000,  0.00000,  0.00000,  0.00000,1,   6.50, 207,1.0000
248574, 248774,'1 ',   0.02365,   0.06006,   0.00114,   69.00,   69.00,   69.00,  0.00000,  0.00000,  0.00000,  0.00000,1,   0.00, 207,1.0000
248586,-248843,'1 ',   0.03464,   0.06062,   0.00100,   47.00,   47.00,   47.00,  0.00000,  0.00000,  0.00000,  0.00000,1,   3.70, 207,1.0000
248587, 248785,'1 ',   0.01337,   0.02340,   0.00039,   25.00,   25.00,   25.00,  0.00000,  0.00000,  0.00000,  0.00000,1,   0.00, 207,1.0000
248588, 248775,'1 ',   0.04630,   0.09530,   0.00180,   60.00,   60.00,   60.00,  0.00000,  0.00000,  0.00000,  0.00000,0,   6.30, 207,1.0000
248593, 248841,'1 ',   0.04665,   0.11849,   0.00030,   69.00,   69.00,   69.00,  0.00000,  0.00000,  0.00000,  0.00000,1,   8.20, 207,1.0000
248593, 248845,'1 ',   0.02315,   0.04763,   0.00087,   60.00,   60.00,   60.00,  0.00000,  0.00000,  0.00000,  0.00000,1,   3.00, 207,1.0000
248594, 248775,'1 ',   0.00617,   0.01270,   0.00023,   60.00,   60.00,   60.00,  0.00000,  0.00000,  0.00000,  0.00000,1,   0.00, 207,1.0000
248596, 248860,'1 ',   0.04557,   0.09374,   0.00172,   60.00,   60.00,   60.00,  0.00000,  0.00000,  0.00000,  0.00000,1,   0.00, 207,1.0000
248597, 248598,'1 ',   0.04740,   0.08296,   0.00137,   25.00,   25.00,   25.00,  0.00000,  0.00000,  0.00000,  0.00000,1,   0.00, 207,1.0000
248597, 248860,'1 ',   0.00184,   0.00378,   0.00007,   46.00,   46.00,   46.00,  0.00000,  0.00000,  0.00000,  0.00000,1,   0.00, 207,1.0000
248609, 248880,'1 ',   0.03181,   0.05568,   0.00092,   47.00,   47.00,   47.00,  0.00000,  0.00000,  0.00000,  0.00000,1,   0.00, 207,1.0000
248610, 248611,'1 ',   0.04759,   0.08328,   0.00138,   25.00,   25.00,   25.00,  0.00000,  0.00000,  0.00000,  0.00000,1,   0.00, 207,1.0000
248610, 248880,'1 ',   0.03588,   0.06278,   0.00104,   47.00,   47.00,   47.00,  0.00000,  0.00000,  0.00000,  0.00000,0,   0.00, 207,1.0000
248613,-248690,'1 ',   0.03615,   0.06325,   0.00018,   47.00,   47.00,   47.00,  0.00000,  0.00000,  0.00000,  0.00000,1,   3.90, 207,1.0000
248617, 248618,'1 ',   0.03581,   0.06267,   0.00104,   47.00,   47.00,   47.00,  0.00000,  0.00000,  0.00000,  0.00000,1,   0.00, 207,1.0000
248618, 248619,'1 ',   0.04956,   0.08672,   0.00144,   47.00,   47.00,   47.00,  0.00000,  0.00000,  0.00000,  0.00000,1,   0.00, 207,1.0000
248618, 248620,'1 ',   0.02104,   0.03681,   0.00061,   25.00,   25.00,   25.00,  0.00000,  0.00000,  0.00000,  0.00000,1,   0.00, 207,1.0000
248619,-253607,'1 ',   0.02435,   0.06184,   0.00118,   68.00,   68.00,   91.00,  0.00000,  0.00000,  0.00000,  0.00000,0,   0.00,   1,1.0000
248632, 248633,'1 ',   0.05478,   0.13911,   0.00265,   69.00,   69.00,   69.00,  0.00000,  0.00000,  0.00000,  0.00000,0,   9.40, 207,1.0000
248633, 248634,'1 ',   0.02534,   0.04434,   0.00073,   54.00,   54.00,   54.00,  0.00000,  0.00000,  0.00000,  0.00000,1,   0.00, 207,1.0000
248633, 248852,'1 ',   0.00470,   0.00820,   0.00014,   47.00,   47.00,   47.00,  0.00000,  0.00000,  0.00000,  0.00000,1,   0.00, 207,1.0000
248634, 248840,'1 ',   0.01030,   0.01800,   0.00030,   47.00,   47.00,   47.00,  0.00000,  0.00000,  0.00000,  0.00000,1,   0.00, 207,1.0000
248635, 248636,'1 ',   0.06244,   0.10928,   0.00181,   47.00,   47.00,   47.00,  0.00000,  0.00000,  0.00000,  0.00000,0,   0.00, 207,1.0000
248635, 248791,'1 ',   0.01216,   0.02127,   0.00035,   25.00,   25.00,   25.00,  0.00000,  0.00000,  0.00000,  0.00000,1,   0.00, 207,1.0000
248641, 248642,'1 ',   0.09874,   0.17278,   0.00286,   59.00,   59.00,   59.00,  0.00000,  0.00000,  0.00000,  0.00000,1,   0.00, 207,1.0000
248641, 248883,'1 ',   0.03908,   0.06839,   0.00113,   47.00,   47.00,   47.00,  0.00000,  0.00000,  0.00000,  0.00000,1,   4.00, 207,1.0000
248642, 248786,'1 ',   0.00342,   0.17073,   0.00244,   25.00,   25.00,   25.00,  0.00000,  0.00000,  0.00000,  0.00000,1,   0.00, 207,1.0000
248642, 248861,'1 ',   0.06139,   0.11642,   0.00200,   35.00,   35.00,   35.00,  0.00000,  0.00000,  0.00000,  0.00000,1,   0.00, 207,1.0000
248643, 248645,'1 ',   0.13018,   0.19109,   0.00295,   25.00,   25.00,   25.00,  0.00000,  0.00000,  0.00000,  0.00160,1,  11.20, 207,1.0000
248644, 248645,'1 ',   0.01132,   0.01662,   0.00026,   25.00,   25.00,   25.00,  0.00000,  0.00160,  0.00000,  0.00000,1,   1.00, 207,1.0000
248643, 248861,'1 ',   0.02851,   0.04990,   0.00083,   25.00,   25.00,   25.00,  0.00000,  0.00000,  0.00000,  0.00000,1,   0.00, 207,1.0000
248656, 248786,'1 ',   0.01972,   0.03452,   0.00057,   25.00,   25.00,   25.00,  0.00000,  0.00000,  0.00000,  0.00000,1,   0.00, 207,1.0000
248658, 248852,'1 ',   0.03459,   0.06054,   0.00100,   47.00,   47.00,   47.00,  0.00000,  0.00000,  0.00000,  0.00000,1,   0.00, 207,1.0000
248658, 248885,'1 ',   0.00811,   0.01577,   0.00028,   60.00,   60.00,   60.00,  0.00000,  0.00000,  0.00000,  0.00000,1,   0.00, 207,1.0000
248659, 248660,'1 ',   0.01608,   0.02814,   0.00047,   25.00,   25.00,   25.00,  0.00000,  0.00000,  0.00000,  0.00000,1,   0.00, 207,1.0000
248659, 248806,'1 ',   0.05342,   0.08042,   0.00115,   47.00,   47.00,   47.00,  0.00000,  0.00000,  0.00000,  0.00000,0,   4.50, 207,1.0000
248665, 248666,'1 ',   0.00720,   0.01260,   0.00021,   47.00,   47.00,   47.00,  0.00000,  0.00000,  0.00000,  0.00000,1,   0.00, 207,1.0000
248665, 248778,'1 ',   0.01777,   0.03109,   0.00501,   25.00,   25.00,   25.00,  0.00000,  0.00000,  0.00000,  0.00000,1,   0.00, 207,1.0000
248665, 248806,'1 ',   0.04963,   0.08687,   0.00144,   47.00,   47.00,   47.00,  0.00000,  0.00000,  0.00000,  0.00000,1,   0.00, 207,1.0000
248666, 248669,'1 ',   0.15249,   0.26686,   0.00442,   25.00,   25.00,   25.00,  0.00000,  0.00000,  0.00000,  0.00000,1,   0.00, 207,1.0000
248666, 248682,'1 ',   0.09489,   0.19520,   0.00358,   31.00,   31.00,   31.00,  0.00000,  0.00000,  0.00000,  0.00000,1,   0.00, 207,1.0000
248666, 248691,'1 ',   0.09276,   0.19081,   0.00350,   72.00,   72.00,   72.00,  0.00000,  0.00000,  0.00000,  0.00000,1,   0.00, 207,1.0000
248666, 248897,'1 ',   0.00000,   0.00010,   0.00000,  999.00,  999.00,  999.00,  0.00000,  0.00000,  0.00000,  0.00000,1,   0.00, 207,1.0000
248667, 248888,'1 ',   0.01785,   0.11602,   0.05720,  279.00,  279.00,  279.00,  0.00000,  0.00000,  0.00000,  0.00000,1,   0.00, 207,1.0000
248667, 248898,'1 ',   0.00000,   0.00010,   0.00000,  999.00,  999.00,  999.00,  0.00000,  0.00000,  0.00000,  0.00000,1,   0.00, 207,1.0000
248668, 248885,'1 ',   0.00681,   0.01183,   0.00020,   60.00,   60.00,   60.00,  0.00000,  0.00000,  0.00000,  0.00000,1,   0.00, 207,1.0000
248669, 248681,'1 ',   0.03908,   0.06839,   0.00113,   25.00,   25.00,   25.00,  0.00000,  0.00000,  0.00000,  0.00000,1,   0.00, 207,1.0000
248682, 248683,'1 ',   0.01448,   0.02979,   0.00055,   31.00,   31.00,   31.00,  0.00000,  0.00000,  0.00000,  0.00000,1,   0.00, 207,1.0000
248683, 248787,'1 ',   0.09809,   0.17281,   0.00288,   47.00,   47.00,   47.00,  0.00000,  0.00000,  0.00000,  0.00000,0,   0.00, 207,1.0000
248684, 248689,'1 ',   0.07041,   0.12321,   0.00204,   25.00,   25.00,   25.00,  0.00000,  0.00000,  0.00000,  0.00000,1,   0.00, 207,1.0000
248684, 248815,'1 ',   0.02842,   0.04974,   0.00082,   25.00,   25.00,   25.00,  0.00000,  0.00000,  0.00000,  0.00000,1,   0.00, 207,1.0000
248691, 248770,'1 ',   0.03697,   0.07605,   0.00139,   60.00,   60.00,   60.00,  0.00000,  0.00000,  0.00000,  0.00000,1,   0.00, 207,1.0000
248692, 248813,'1 ',   0.04114,   0.07199,   0.00119,   47.00,   47.00,   47.00,  0.00000,  0.00000,  0.00000,  0.00000,1,   0.00, 207,1.0000
248692, 248814,'1 ',   0.04114,   0.07199,   0.00119,   47.00,   47.00,   47.00,  0.00000,  0.00000,  0.00000,  0.00000,0,   0.00, 207,1.0000
248693, 248867,'1 ',   0.00766,   0.04976,   0.02460,  335.00,  335.00,  335.00,  0.00000,  0.00000,  0.00000,  0.00000,1,  18.00, 207,1.0000
248704, 248812,'1 ',   0.03580,   0.09091,   0.00173,   69.00,   69.00,   69.00,  0.00000,  0.00000,  0.00000,  0.00000,1,   0.00, 207,1.0000
248704, 248813,'1 ',   0.00234,   0.00593,   0.00011,   47.00,   47.00,   47.00,  0.00000,  0.00000,  0.00000,  0.00000,1,   0.00, 207,1.0000
248706, 248707,'1 ',   0.06246,   0.10930,   0.00181,   25.00,   25.00,   25.00,  0.00000,  0.00000,  0.00000,  0.00000,1,   0.00, 207,1.0000
248706, 248712,'1 ',   0.10040,   0.20654,   0.00378,   31.00,   31.00,   31.00,  0.00000,  0.00000,  0.00000,  0.00000,1,   0.00, 207,1.0000
248706, 248734,'1 ',   0.02155,   0.05472,   0.00104,   69.00,   69.00,   69.00,  0.00000,  0.00000,  0.00000,  0.00000,1,   3.70, 207,1.0000
248706, 248879,'1 ',   0.05748,   0.11825,   0.00217,   60.00,   60.00,   60.00,  0.00000,  0.00000,  0.00000,  0.00000,1,   6.50, 207,1.0000
248707, 248730,'1 ',   0.00944,   0.01653,   0.00027,   25.00,   25.00,   25.00,  0.00000,  0.00000,  0.00000,  0.00000,1,   0.00, 207,1.0000
248707, 248816,'1 ',   0.07536,   0.13188,   0.00218,   25.00,   25.00,   25.00,  0.00000,  0.00000,  0.00000,  0.00000,1,   0.00, 207,1.0000
248711, 248816,'1 ',   0.09182,   0.16067,   0.00266,   25.00,   25.00,   25.00,  0.00000,  0.00000,  0.00000,  0.00000,1,   0.00, 207,1.0000
248711, 248877,'1 ',   0.02873,   0.07295,   0.00119,   69.00,   69.00,   69.00,  0.00000,  0.00000,  0.00000,  0.00000,0,   0.00, 207,1.0000
248712, 248713,'1 ',   0.12286,   0.21500,   0.00356,   25.00,   25.00,   25.00,  0.00000,  0.00000,  0.00000,  0.00000,0,   0.00, 207,1.0000
248712, 248715,'1 ',   0.07948,   0.13908,   0.00230,   25.00,   25.00,   25.00,  0.00000,  0.00000,  0.00000,  0.00000,1,   0.00, 207,1.0000
248713, 248714,'1 ',   0.08574,   0.15004,   0.00249,   25.00,   25.00,   25.00,  0.00000,  0.00000,  0.00000,  0.00000,1,   0.00, 207,1.0000
248713, 248780,'1 ',   0.01524,   0.03871,   0.00074,   35.00,   35.00,   35.00,  0.00000,  0.00000,  0.00000,  0.00000,1,   0.00, 207,1.0000
248715, 248716,'1 ',   0.07853,   0.13743,   0.00228,   25.00,   25.00,   25.00,  0.00000,  0.00000,  0.00000,  0.00000,0,   0.00, 207,1.0000
248716, 248727,'1 ',   0.06077,   0.10635,   0.00176,   25.00,   25.00,   25.00,  0.00000,  0.00000,  0.00000,  0.00000,0,   0.00, 207,1.0000
248716, 248732,'1 ',   0.14137,   0.24739,   0.00410,   25.00,   25.00,   25.00,  0.00000,  0.00000,  0.00000,  0.00000,1,   0.00, 207,1.0000
248727, 248728,'1 ',   0.09799,   0.17147,   0.00284,   25.00,   25.00,   25.00,  0.00000,  0.00000,  0.00000,  0.00000,1,   0.00, 207,1.0000
248727, 248780,'1 ',   0.05256,   0.13350,   0.00255,   35.00,   35.00,   35.00,  0.00000,  0.00000,  0.00000,  0.00000,1,   0.00, 207,1.0000
248731, 248732,'1 ',   0.01661,   0.03417,   0.00063,   60.00,   60.00,   60.00,  0.00000,  0.00000,  0.00000,  0.00000,1,   0.00, 207,1.0000
248731, 248879,'1 ',   0.04336,   0.08920,   0.00163,   60.00,   60.00,   60.00,  0.00000,  0.00000,  0.00000,  0.00000,0,   6.50, 207,1.0000
248732, 248733,'1 ',   0.08415,   0.14726,   0.00244,   47.00,   47.00,   47.00,  0.00000,  0.00000,  0.00000,  0.00000,1,   9.00, 207,1.0000
248732, 248755,'1 ',   0.05200,   0.11248,   0.02600,   85.00,   85.00,   85.00,  0.00000,  0.00000,  0.00000,  0.00000,1,   0.00, 207,1.0000
248733, 248854,'1 ',   0.02633,   0.06688,   0.00127,   69.00,   69.00,   69.00,  0.00000,  0.00000,  0.00000,  0.00000,1,   0.00, 207,1.0000
248734, 248735,'1 ',   0.06558,   0.16654,   0.00318,   69.00,   69.00,   69.00,  0.00000,  0.00000,  0.00000,  0.00000,1,  11.10, 207,1.0000
...